*SPEF "ieee 1481-1999"
*DESIGN "user_project_wrapper"
*DATE "11:11:11 Fri 11 11, 1111"
*VENDOR "OpenRCX"
*PROGRAM "Parallel Extraction"
*VERSION "1.0"
*DESIGN_FLOW "NAME_SCOPE LOCAL" "PIN_CAP NONE"
*DIVIDER /
*DELIMITER :
*BUS_DELIMITER []
*T_UNIT 1 NS
*C_UNIT 1 PF
*R_UNIT 1 OHM
*L_UNIT 1 HENRY

*NAME_MAP
*1 io_in[0]
*2 io_in[10]
*3 io_in[11]
*4 io_in[12]
*5 io_in[13]
*6 io_in[14]
*7 io_in[15]
*8 io_in[16]
*9 io_in[17]
*10 io_in[18]
*11 io_in[19]
*12 io_in[1]
*13 io_in[20]
*14 io_in[21]
*15 io_in[22]
*16 io_in[23]
*17 io_in[24]
*18 io_in[25]
*19 io_in[26]
*20 io_in[27]
*21 io_in[28]
*22 io_in[29]
*23 io_in[2]
*24 io_in[30]
*25 io_in[31]
*26 io_in[32]
*27 io_in[33]
*28 io_in[34]
*29 io_in[35]
*30 io_in[36]
*31 io_in[37]
*32 io_in[3]
*33 io_in[4]
*34 io_in[5]
*35 io_in[6]
*36 io_in[7]
*37 io_in[8]
*38 io_in[9]
*39 io_oeb[0]
*40 io_oeb[10]
*41 io_oeb[11]
*42 io_oeb[12]
*43 io_oeb[13]
*44 io_oeb[14]
*45 io_oeb[15]
*46 io_oeb[16]
*47 io_oeb[17]
*48 io_oeb[18]
*49 io_oeb[19]
*50 io_oeb[1]
*51 io_oeb[20]
*52 io_oeb[21]
*53 io_oeb[22]
*54 io_oeb[23]
*55 io_oeb[24]
*56 io_oeb[25]
*57 io_oeb[26]
*58 io_oeb[27]
*59 io_oeb[28]
*60 io_oeb[29]
*61 io_oeb[2]
*62 io_oeb[30]
*63 io_oeb[31]
*64 io_oeb[32]
*65 io_oeb[33]
*66 io_oeb[34]
*67 io_oeb[35]
*68 io_oeb[36]
*69 io_oeb[37]
*70 io_oeb[3]
*71 io_oeb[4]
*72 io_oeb[5]
*73 io_oeb[6]
*74 io_oeb[7]
*75 io_oeb[8]
*76 io_oeb[9]
*77 io_out[0]
*78 io_out[10]
*79 io_out[11]
*80 io_out[12]
*81 io_out[13]
*82 io_out[14]
*83 io_out[15]
*84 io_out[16]
*85 io_out[17]
*86 io_out[18]
*87 io_out[19]
*88 io_out[1]
*89 io_out[20]
*90 io_out[21]
*91 io_out[22]
*92 io_out[23]
*93 io_out[24]
*94 io_out[25]
*95 io_out[26]
*96 io_out[27]
*97 io_out[28]
*98 io_out[29]
*99 io_out[2]
*100 io_out[30]
*101 io_out[31]
*102 io_out[32]
*103 io_out[33]
*104 io_out[34]
*105 io_out[35]
*106 io_out[36]
*107 io_out[37]
*108 io_out[3]
*109 io_out[4]
*110 io_out[5]
*111 io_out[6]
*112 io_out[7]
*113 io_out[8]
*114 io_out[9]
*115 la_data_in[0]
*116 la_data_in[10]
*117 la_data_in[11]
*118 la_data_in[12]
*119 la_data_in[13]
*120 la_data_in[14]
*121 la_data_in[15]
*122 la_data_in[16]
*123 la_data_in[17]
*124 la_data_in[18]
*125 la_data_in[19]
*126 la_data_in[1]
*127 la_data_in[20]
*128 la_data_in[21]
*129 la_data_in[22]
*130 la_data_in[23]
*131 la_data_in[24]
*132 la_data_in[25]
*133 la_data_in[26]
*134 la_data_in[27]
*135 la_data_in[28]
*136 la_data_in[29]
*137 la_data_in[2]
*138 la_data_in[30]
*139 la_data_in[31]
*140 la_data_in[32]
*141 la_data_in[33]
*142 la_data_in[34]
*143 la_data_in[35]
*144 la_data_in[36]
*145 la_data_in[37]
*146 la_data_in[38]
*147 la_data_in[39]
*148 la_data_in[3]
*149 la_data_in[40]
*150 la_data_in[41]
*151 la_data_in[42]
*152 la_data_in[43]
*153 la_data_in[44]
*154 la_data_in[45]
*155 la_data_in[46]
*156 la_data_in[47]
*157 la_data_in[48]
*158 la_data_in[49]
*159 la_data_in[4]
*160 la_data_in[50]
*161 la_data_in[51]
*162 la_data_in[52]
*163 la_data_in[53]
*164 la_data_in[54]
*165 la_data_in[55]
*166 la_data_in[56]
*167 la_data_in[57]
*168 la_data_in[58]
*169 la_data_in[59]
*170 la_data_in[5]
*171 la_data_in[60]
*172 la_data_in[61]
*173 la_data_in[62]
*174 la_data_in[63]
*175 la_data_in[6]
*176 la_data_in[7]
*177 la_data_in[8]
*178 la_data_in[9]
*179 la_data_out[0]
*180 la_data_out[10]
*181 la_data_out[11]
*182 la_data_out[12]
*183 la_data_out[13]
*184 la_data_out[14]
*185 la_data_out[15]
*186 la_data_out[16]
*187 la_data_out[17]
*188 la_data_out[18]
*189 la_data_out[19]
*190 la_data_out[1]
*191 la_data_out[20]
*192 la_data_out[21]
*193 la_data_out[22]
*194 la_data_out[23]
*195 la_data_out[24]
*196 la_data_out[25]
*197 la_data_out[26]
*198 la_data_out[27]
*199 la_data_out[28]
*200 la_data_out[29]
*201 la_data_out[2]
*202 la_data_out[30]
*203 la_data_out[31]
*204 la_data_out[32]
*205 la_data_out[33]
*206 la_data_out[34]
*207 la_data_out[35]
*208 la_data_out[36]
*209 la_data_out[37]
*210 la_data_out[38]
*211 la_data_out[39]
*212 la_data_out[3]
*213 la_data_out[40]
*214 la_data_out[41]
*215 la_data_out[42]
*216 la_data_out[43]
*217 la_data_out[44]
*218 la_data_out[45]
*219 la_data_out[46]
*220 la_data_out[47]
*221 la_data_out[48]
*222 la_data_out[49]
*223 la_data_out[4]
*224 la_data_out[50]
*225 la_data_out[51]
*226 la_data_out[52]
*227 la_data_out[53]
*228 la_data_out[54]
*229 la_data_out[55]
*230 la_data_out[56]
*231 la_data_out[57]
*232 la_data_out[58]
*233 la_data_out[59]
*234 la_data_out[5]
*235 la_data_out[60]
*236 la_data_out[61]
*237 la_data_out[62]
*238 la_data_out[63]
*239 la_data_out[6]
*240 la_data_out[7]
*241 la_data_out[8]
*242 la_data_out[9]
*243 la_oenb[0]
*244 la_oenb[10]
*245 la_oenb[11]
*246 la_oenb[12]
*247 la_oenb[13]
*248 la_oenb[14]
*249 la_oenb[15]
*250 la_oenb[16]
*251 la_oenb[17]
*252 la_oenb[18]
*253 la_oenb[19]
*254 la_oenb[1]
*255 la_oenb[20]
*256 la_oenb[21]
*257 la_oenb[22]
*258 la_oenb[23]
*259 la_oenb[24]
*260 la_oenb[25]
*261 la_oenb[26]
*262 la_oenb[27]
*263 la_oenb[28]
*264 la_oenb[29]
*265 la_oenb[2]
*266 la_oenb[30]
*267 la_oenb[31]
*268 la_oenb[32]
*269 la_oenb[33]
*270 la_oenb[34]
*271 la_oenb[35]
*272 la_oenb[36]
*273 la_oenb[37]
*274 la_oenb[38]
*275 la_oenb[39]
*276 la_oenb[3]
*277 la_oenb[40]
*278 la_oenb[41]
*279 la_oenb[42]
*280 la_oenb[43]
*281 la_oenb[44]
*282 la_oenb[45]
*283 la_oenb[46]
*284 la_oenb[47]
*285 la_oenb[48]
*286 la_oenb[49]
*287 la_oenb[4]
*288 la_oenb[50]
*289 la_oenb[51]
*290 la_oenb[52]
*291 la_oenb[53]
*292 la_oenb[54]
*293 la_oenb[55]
*294 la_oenb[56]
*295 la_oenb[57]
*296 la_oenb[58]
*297 la_oenb[59]
*298 la_oenb[5]
*299 la_oenb[60]
*300 la_oenb[61]
*301 la_oenb[62]
*302 la_oenb[63]
*303 la_oenb[6]
*304 la_oenb[7]
*305 la_oenb[8]
*306 la_oenb[9]
*307 user_clock2
*308 user_irq[0]
*309 user_irq[1]
*310 user_irq[2]
*313 wb_clk_i
*314 wb_rst_i
*315 wbs_ack_o
*316 wbs_adr_i[0]
*317 wbs_adr_i[10]
*318 wbs_adr_i[11]
*319 wbs_adr_i[12]
*320 wbs_adr_i[13]
*321 wbs_adr_i[14]
*322 wbs_adr_i[15]
*323 wbs_adr_i[16]
*324 wbs_adr_i[17]
*325 wbs_adr_i[18]
*326 wbs_adr_i[19]
*327 wbs_adr_i[1]
*328 wbs_adr_i[20]
*329 wbs_adr_i[21]
*330 wbs_adr_i[22]
*331 wbs_adr_i[23]
*332 wbs_adr_i[24]
*333 wbs_adr_i[25]
*334 wbs_adr_i[26]
*335 wbs_adr_i[27]
*336 wbs_adr_i[28]
*337 wbs_adr_i[29]
*338 wbs_adr_i[2]
*339 wbs_adr_i[30]
*340 wbs_adr_i[31]
*341 wbs_adr_i[3]
*342 wbs_adr_i[4]
*343 wbs_adr_i[5]
*344 wbs_adr_i[6]
*345 wbs_adr_i[7]
*346 wbs_adr_i[8]
*347 wbs_adr_i[9]
*348 wbs_cyc_i
*349 wbs_dat_i[0]
*350 wbs_dat_i[10]
*351 wbs_dat_i[11]
*352 wbs_dat_i[12]
*353 wbs_dat_i[13]
*354 wbs_dat_i[14]
*355 wbs_dat_i[15]
*356 wbs_dat_i[16]
*357 wbs_dat_i[17]
*358 wbs_dat_i[18]
*359 wbs_dat_i[19]
*360 wbs_dat_i[1]
*361 wbs_dat_i[20]
*362 wbs_dat_i[21]
*363 wbs_dat_i[22]
*364 wbs_dat_i[23]
*365 wbs_dat_i[24]
*366 wbs_dat_i[25]
*367 wbs_dat_i[26]
*368 wbs_dat_i[27]
*369 wbs_dat_i[28]
*370 wbs_dat_i[29]
*371 wbs_dat_i[2]
*372 wbs_dat_i[30]
*373 wbs_dat_i[31]
*374 wbs_dat_i[3]
*375 wbs_dat_i[4]
*376 wbs_dat_i[5]
*377 wbs_dat_i[6]
*378 wbs_dat_i[7]
*379 wbs_dat_i[8]
*380 wbs_dat_i[9]
*381 wbs_dat_o[0]
*382 wbs_dat_o[10]
*383 wbs_dat_o[11]
*384 wbs_dat_o[12]
*385 wbs_dat_o[13]
*386 wbs_dat_o[14]
*387 wbs_dat_o[15]
*388 wbs_dat_o[16]
*389 wbs_dat_o[17]
*390 wbs_dat_o[18]
*391 wbs_dat_o[19]
*392 wbs_dat_o[1]
*393 wbs_dat_o[20]
*394 wbs_dat_o[21]
*395 wbs_dat_o[22]
*396 wbs_dat_o[23]
*397 wbs_dat_o[24]
*398 wbs_dat_o[25]
*399 wbs_dat_o[26]
*400 wbs_dat_o[27]
*401 wbs_dat_o[28]
*402 wbs_dat_o[29]
*403 wbs_dat_o[2]
*404 wbs_dat_o[30]
*405 wbs_dat_o[31]
*406 wbs_dat_o[3]
*407 wbs_dat_o[4]
*408 wbs_dat_o[5]
*409 wbs_dat_o[6]
*410 wbs_dat_o[7]
*411 wbs_dat_o[8]
*412 wbs_dat_o[9]
*413 wbs_sel_i[0]
*414 wbs_sel_i[1]
*415 wbs_sel_i[2]
*416 wbs_sel_i[3]
*417 wbs_stb_i
*418 wbs_we_i
*419 OQPSK

*PORTS
io_in[0] I
io_in[10] I
io_in[11] I
io_in[12] I
io_in[13] I
io_in[14] I
io_in[15] I
io_in[16] I
io_in[17] I
io_in[18] I
io_in[19] I
io_in[1] I
io_in[20] I
io_in[21] I
io_in[22] I
io_in[23] I
io_in[24] I
io_in[25] I
io_in[26] I
io_in[27] I
io_in[28] I
io_in[29] I
io_in[2] I
io_in[30] I
io_in[31] I
io_in[32] I
io_in[33] I
io_in[34] I
io_in[35] I
io_in[36] I
io_in[37] I
io_in[3] I
io_in[4] I
io_in[5] I
io_in[6] I
io_in[7] I
io_in[8] I
io_in[9] I
io_oeb[0] O
io_oeb[10] O
io_oeb[11] O
io_oeb[12] O
io_oeb[13] O
io_oeb[14] O
io_oeb[15] O
io_oeb[16] O
io_oeb[17] O
io_oeb[18] O
io_oeb[19] O
io_oeb[1] O
io_oeb[20] O
io_oeb[21] O
io_oeb[22] O
io_oeb[23] O
io_oeb[24] O
io_oeb[25] O
io_oeb[26] O
io_oeb[27] O
io_oeb[28] O
io_oeb[29] O
io_oeb[2] O
io_oeb[30] O
io_oeb[31] O
io_oeb[32] O
io_oeb[33] O
io_oeb[34] O
io_oeb[35] O
io_oeb[36] O
io_oeb[37] O
io_oeb[3] O
io_oeb[4] O
io_oeb[5] O
io_oeb[6] O
io_oeb[7] O
io_oeb[8] O
io_oeb[9] O
io_out[0] O
io_out[10] O
io_out[11] O
io_out[12] O
io_out[13] O
io_out[14] O
io_out[15] O
io_out[16] O
io_out[17] O
io_out[18] O
io_out[19] O
io_out[1] O
io_out[20] O
io_out[21] O
io_out[22] O
io_out[23] O
io_out[24] O
io_out[25] O
io_out[26] O
io_out[27] O
io_out[28] O
io_out[29] O
io_out[2] O
io_out[30] O
io_out[31] O
io_out[32] O
io_out[33] O
io_out[34] O
io_out[35] O
io_out[36] O
io_out[37] O
io_out[3] O
io_out[4] O
io_out[5] O
io_out[6] O
io_out[7] O
io_out[8] O
io_out[9] O
la_data_in[0] I
la_data_in[10] I
la_data_in[11] I
la_data_in[12] I
la_data_in[13] I
la_data_in[14] I
la_data_in[15] I
la_data_in[16] I
la_data_in[17] I
la_data_in[18] I
la_data_in[19] I
la_data_in[1] I
la_data_in[20] I
la_data_in[21] I
la_data_in[22] I
la_data_in[23] I
la_data_in[24] I
la_data_in[25] I
la_data_in[26] I
la_data_in[27] I
la_data_in[28] I
la_data_in[29] I
la_data_in[2] I
la_data_in[30] I
la_data_in[31] I
la_data_in[32] I
la_data_in[33] I
la_data_in[34] I
la_data_in[35] I
la_data_in[36] I
la_data_in[37] I
la_data_in[38] I
la_data_in[39] I
la_data_in[3] I
la_data_in[40] I
la_data_in[41] I
la_data_in[42] I
la_data_in[43] I
la_data_in[44] I
la_data_in[45] I
la_data_in[46] I
la_data_in[47] I
la_data_in[48] I
la_data_in[49] I
la_data_in[4] I
la_data_in[50] I
la_data_in[51] I
la_data_in[52] I
la_data_in[53] I
la_data_in[54] I
la_data_in[55] I
la_data_in[56] I
la_data_in[57] I
la_data_in[58] I
la_data_in[59] I
la_data_in[5] I
la_data_in[60] I
la_data_in[61] I
la_data_in[62] I
la_data_in[63] I
la_data_in[6] I
la_data_in[7] I
la_data_in[8] I
la_data_in[9] I
la_data_out[0] O
la_data_out[10] O
la_data_out[11] O
la_data_out[12] O
la_data_out[13] O
la_data_out[14] O
la_data_out[15] O
la_data_out[16] O
la_data_out[17] O
la_data_out[18] O
la_data_out[19] O
la_data_out[1] O
la_data_out[20] O
la_data_out[21] O
la_data_out[22] O
la_data_out[23] O
la_data_out[24] O
la_data_out[25] O
la_data_out[26] O
la_data_out[27] O
la_data_out[28] O
la_data_out[29] O
la_data_out[2] O
la_data_out[30] O
la_data_out[31] O
la_data_out[32] O
la_data_out[33] O
la_data_out[34] O
la_data_out[35] O
la_data_out[36] O
la_data_out[37] O
la_data_out[38] O
la_data_out[39] O
la_data_out[3] O
la_data_out[40] O
la_data_out[41] O
la_data_out[42] O
la_data_out[43] O
la_data_out[44] O
la_data_out[45] O
la_data_out[46] O
la_data_out[47] O
la_data_out[48] O
la_data_out[49] O
la_data_out[4] O
la_data_out[50] O
la_data_out[51] O
la_data_out[52] O
la_data_out[53] O
la_data_out[54] O
la_data_out[55] O
la_data_out[56] O
la_data_out[57] O
la_data_out[58] O
la_data_out[59] O
la_data_out[5] O
la_data_out[60] O
la_data_out[61] O
la_data_out[62] O
la_data_out[63] O
la_data_out[6] O
la_data_out[7] O
la_data_out[8] O
la_data_out[9] O
la_oenb[0] I
la_oenb[10] I
la_oenb[11] I
la_oenb[12] I
la_oenb[13] I
la_oenb[14] I
la_oenb[15] I
la_oenb[16] I
la_oenb[17] I
la_oenb[18] I
la_oenb[19] I
la_oenb[1] I
la_oenb[20] I
la_oenb[21] I
la_oenb[22] I
la_oenb[23] I
la_oenb[24] I
la_oenb[25] I
la_oenb[26] I
la_oenb[27] I
la_oenb[28] I
la_oenb[29] I
la_oenb[2] I
la_oenb[30] I
la_oenb[31] I
la_oenb[32] I
la_oenb[33] I
la_oenb[34] I
la_oenb[35] I
la_oenb[36] I
la_oenb[37] I
la_oenb[38] I
la_oenb[39] I
la_oenb[3] I
la_oenb[40] I
la_oenb[41] I
la_oenb[42] I
la_oenb[43] I
la_oenb[44] I
la_oenb[45] I
la_oenb[46] I
la_oenb[47] I
la_oenb[48] I
la_oenb[49] I
la_oenb[4] I
la_oenb[50] I
la_oenb[51] I
la_oenb[52] I
la_oenb[53] I
la_oenb[54] I
la_oenb[55] I
la_oenb[56] I
la_oenb[57] I
la_oenb[58] I
la_oenb[59] I
la_oenb[5] I
la_oenb[60] I
la_oenb[61] I
la_oenb[62] I
la_oenb[63] I
la_oenb[6] I
la_oenb[7] I
la_oenb[8] I
la_oenb[9] I
user_clock2 I
user_irq[0] O
user_irq[1] O
user_irq[2] O
wb_clk_i I
wb_rst_i I
wbs_ack_o O
wbs_adr_i[0] I
wbs_adr_i[10] I
wbs_adr_i[11] I
wbs_adr_i[12] I
wbs_adr_i[13] I
wbs_adr_i[14] I
wbs_adr_i[15] I
wbs_adr_i[16] I
wbs_adr_i[17] I
wbs_adr_i[18] I
wbs_adr_i[19] I
wbs_adr_i[1] I
wbs_adr_i[20] I
wbs_adr_i[21] I
wbs_adr_i[22] I
wbs_adr_i[23] I
wbs_adr_i[24] I
wbs_adr_i[25] I
wbs_adr_i[26] I
wbs_adr_i[27] I
wbs_adr_i[28] I
wbs_adr_i[29] I
wbs_adr_i[2] I
wbs_adr_i[30] I
wbs_adr_i[31] I
wbs_adr_i[3] I
wbs_adr_i[4] I
wbs_adr_i[5] I
wbs_adr_i[6] I
wbs_adr_i[7] I
wbs_adr_i[8] I
wbs_adr_i[9] I
wbs_cyc_i I
wbs_dat_i[0] I
wbs_dat_i[10] I
wbs_dat_i[11] I
wbs_dat_i[12] I
wbs_dat_i[13] I
wbs_dat_i[14] I
wbs_dat_i[15] I
wbs_dat_i[16] I
wbs_dat_i[17] I
wbs_dat_i[18] I
wbs_dat_i[19] I
wbs_dat_i[1] I
wbs_dat_i[20] I
wbs_dat_i[21] I
wbs_dat_i[22] I
wbs_dat_i[23] I
wbs_dat_i[24] I
wbs_dat_i[25] I
wbs_dat_i[26] I
wbs_dat_i[27] I
wbs_dat_i[28] I
wbs_dat_i[29] I
wbs_dat_i[2] I
wbs_dat_i[30] I
wbs_dat_i[31] I
wbs_dat_i[3] I
wbs_dat_i[4] I
wbs_dat_i[5] I
wbs_dat_i[6] I
wbs_dat_i[7] I
wbs_dat_i[8] I
wbs_dat_i[9] I
wbs_dat_o[0] O
wbs_dat_o[10] O
wbs_dat_o[11] O
wbs_dat_o[12] O
wbs_dat_o[13] O
wbs_dat_o[14] O
wbs_dat_o[15] O
wbs_dat_o[16] O
wbs_dat_o[17] O
wbs_dat_o[18] O
wbs_dat_o[19] O
wbs_dat_o[1] O
wbs_dat_o[20] O
wbs_dat_o[21] O
wbs_dat_o[22] O
wbs_dat_o[23] O
wbs_dat_o[24] O
wbs_dat_o[25] O
wbs_dat_o[26] O
wbs_dat_o[27] O
wbs_dat_o[28] O
wbs_dat_o[29] O
wbs_dat_o[2] O
wbs_dat_o[30] O
wbs_dat_o[31] O
wbs_dat_o[3] O
wbs_dat_o[4] O
wbs_dat_o[5] O
wbs_dat_o[6] O
wbs_dat_o[7] O
wbs_dat_o[8] O
wbs_dat_o[9] O
wbs_sel_i[0] I
wbs_sel_i[1] I
wbs_sel_i[2] I
wbs_sel_i[3] I
wbs_stb_i I
wbs_we_i I

*D_NET *34 0.213684
*CONN
*P io_in[5] I
*I *419:EN I *D OQPSK_PS_RCOSINE2
*CAP
1 io_in[5] 0.0662635
2 *419:EN 0.000610084
3 *34:9 0.0101609
4 *34:7 0.00955081
5 *34:5 0.0662635
6 *419:EN *52:5 0.000156578
7 *34:9 *70:9 0.0606786
*RES
1 io_in[5] *34:5 531.585 
2 *34:5 *34:7 4.5 
3 *34:7 *34:9 150.57 
4 *34:9 *419:EN 9.585 
*END

*D_NET *35 0.136656
*CONN
*P io_in[6] I
*I *419:BitIn I *D OQPSK_PS_RCOSINE2
*CAP
1 io_in[6] 0.0525108
2 *419:BitIn 0.0015005
3 *35:9 0.0102768
4 *35:7 0.00877627
5 *35:5 0.0525108
6 *35:9 *80:9 0.00956509
7 *35:9 *112:11 0.00151533
*RES
1 io_in[6] *35:5 421.245 
2 *35:5 *35:7 4.5 
3 *35:7 *35:9 85.77 
4 *35:9 *419:BitIn 13.545 
*END

*D_NET *39 0.335416
*CONN
*P io_oeb[0] O
*I *419:io_oeb[0] O *D OQPSK_PS_RCOSINE2
*CAP
1 io_oeb[0] 0.0660757
2 *419:io_oeb[0] 0.000694335
3 *39:11 0.0660757
4 *39:9 0.0298753
5 *39:7 0.0305697
6 *39:9 *50:9 0.142125
*RES
1 *419:io_oeb[0] *39:7 8.865 
2 *39:7 *39:9 415.71 
3 *39:9 *39:11 4.5 
4 *39:11 io_oeb[0] 530.865 
*END

*D_NET *40 0.276739
*CONN
*P io_oeb[10] O
*I *419:io_oeb[10] O *D OQPSK_PS_RCOSINE2
*CAP
1 io_oeb[10] 0.00106911
2 *419:io_oeb[10] 0.0528537
3 *40:9 0.00296805
4 *40:7 0.00189894
5 *40:5 0.0528537
6 *40:9 *41:9 0.0868571
7 *40:9 *78:9 0.0782384
*RES
1 *419:io_oeb[10] *40:5 422.325 
2 *40:5 *40:7 4.5 
3 *40:7 *40:9 215.19 
4 *40:9 io_oeb[10] 12.465 
*END

*D_NET *41 0.329111
*CONN
*P io_oeb[11] O
*I *419:io_oeb[11] O *D OQPSK_PS_RCOSINE2
*CAP
1 io_oeb[11] 0.00109069
2 *419:io_oeb[11] 0.0526074
3 *41:9 0.00704665
4 *41:7 0.00595596
5 *41:5 0.0526074
6 *41:5 *71:7 0.000192795
7 *41:9 *44:9 0.118649
8 *41:9 *75:9 0.00102078
9 *41:9 *78:9 0.00308309
10 *40:9 *41:9 0.0868571
*RES
1 *419:io_oeb[11] *41:5 422.145 
2 *41:5 *41:7 4.5 
3 *41:7 *41:9 307.89 
4 *41:9 io_oeb[11] 12.645 
*END

*D_NET *42 0.205177
*CONN
*P io_oeb[12] O
*I *419:io_oeb[12] O *D OQPSK_PS_RCOSINE2
*CAP
1 io_oeb[12] 0.0646747
2 *419:io_oeb[12] 0.0378428
3 *42:7 0.0646747
4 *42:5 0.0378428
5 *42:5 *69:7 0.000141743
6 *42:5 *89:13 0
*RES
1 *419:io_oeb[12] *42:5 291.465 
2 *42:5 *42:7 4.5 
3 *42:7 io_oeb[12] 516.825 
*END

*D_NET *43 0.263497
*CONN
*P io_oeb[13] O
*I *419:io_oeb[13] O *D OQPSK_PS_RCOSINE2
*CAP
1 io_oeb[13] 0.0663651
2 *419:io_oeb[13] 0.000553133
3 *43:11 0.0663651
4 *43:9 0.0475818
5 *43:7 0.0481349
6 *43:9 *47:9 0.0329213
7 *43:9 *50:9 0.00135238
8 *43:9 *70:9 0.000223185
*RES
1 *419:io_oeb[13] *43:7 8.865 
2 *43:7 *43:9 388.89 
3 *43:9 *43:11 4.5 
4 *43:11 io_oeb[13] 530.865 
*END

*D_NET *44 0.311197
*CONN
*P io_oeb[14] O
*I *419:io_oeb[14] O *D OQPSK_PS_RCOSINE2
*CAP
1 io_oeb[14] 0.00111227
2 *419:io_oeb[14] 0.0462732
3 *44:9 0.0430343
4 *44:7 0.0419221
5 *44:5 0.0462732
6 *44:5 *78:5 0.013933
7 *41:9 *44:9 0.118649
*RES
1 *419:io_oeb[14] *44:5 421.965 
2 *44:5 *44:7 4.5 
3 *44:7 *44:9 485.01 
4 *44:9 io_oeb[14] 12.825 
*END

*D_NET *45 0.30578
*CONN
*P io_oeb[15] O
*I *419:io_oeb[15] O *D OQPSK_PS_RCOSINE2
*CAP
1 io_oeb[15] 0.0010294
2 *419:io_oeb[15] 0.000219232
3 *45:13 0.0363869
4 *45:11 0.0353575
5 *45:9 0.0640437
6 *45:7 0.0642629
7 *45:9 *73:9 0.00178123
8 *45:13 *47:13 0.024222
9 *45:13 *53:13 0.0391394
10 *45:13 *92:13 0.0393375
*RES
1 *419:io_oeb[15] *45:7 6.165 
2 *45:7 *45:9 490.59 
3 *45:9 *45:11 4.5 
4 *45:11 *45:13 439.65 
5 *45:13 io_oeb[15] 12.465 
*END

*D_NET *46 0.229126
*CONN
*P io_oeb[16] O
*I *419:io_oeb[16] O *D OQPSK_PS_RCOSINE2
*CAP
1 io_oeb[16] 0.0550353
2 *419:io_oeb[16] 0.000835521
3 *46:11 0.0550353
4 *46:9 0.0311575
5 *46:7 0.031993
6 *46:7 *68:7 0.000143181
7 *46:9 *56:9 0.0281136
8 *46:9 *72:9 0
9 *46:9 *91:9 0.026812
*RES
1 *419:io_oeb[16] *46:7 10.845 
2 *46:7 *46:9 314.37 
3 *46:9 *46:11 4.5 
4 *46:11 io_oeb[16] 423.945 
*END

*D_NET *47 0.270951
*CONN
*P io_oeb[17] O
*I *419:io_oeb[17] O *D OQPSK_PS_RCOSINE2
*CAP
1 io_oeb[17] 0.000983416
2 *419:io_oeb[17] 0.000560077
3 *47:13 0.0101096
4 *47:11 0.00912614
5 *47:9 0.0568933
6 *47:7 0.0574534
7 *47:13 *49:13 0.0334725
8 *47:13 *53:13 0.0402326
9 *47:13 *89:17 0.00497703
10 *43:9 *47:9 0.0329213
11 *45:13 *47:13 0.024222
*RES
1 *419:io_oeb[17] *47:7 8.865 
2 *47:7 *47:9 436.95 
3 *47:9 *47:11 4.5 
4 *47:11 *47:13 229.77 
5 *47:13 io_oeb[17] 12.105 
*END

*D_NET *48 0.131709
*CONN
*P io_oeb[18] O
*I *419:io_oeb[18] O *D OQPSK_PS_RCOSINE2
*CAP
1 io_oeb[18] 0.0629353
2 *419:io_oeb[18] 0.00291896
3 *48:7 0.0658543
*RES
1 *419:io_oeb[18] *48:7 27.045 
2 *48:7 io_oeb[18] 484.425 
*END

*D_NET *49 0.426638
*CONN
*P io_oeb[19] O
*I *419:io_oeb[19] O *D OQPSK_PS_RCOSINE2
*CAP
1 io_oeb[19] 0.000960422
2 *419:io_oeb[19] 5.94246e-05
3 *49:13 0.00420845
4 *49:11 0.00324803
5 *49:9 0.00202822
6 *49:7 0.00208764
7 *49:9 *53:9 6.24903e-05
8 *49:9 *54:9 0.187471
9 *49:9 *72:13 0.00292097
10 *49:9 *92:9 0.169849
11 *49:9 *96:6 0.00629732
12 *49:9 *100:8 0.000309137
13 *49:13 *87:19 0.0136637
14 *47:13 *49:13 0.0334725
*RES
1 *419:io_oeb[19] *49:7 4.905 
2 *49:7 *49:9 477.81 
3 *49:9 *49:11 4.5 
4 *49:11 *49:13 83.43 
5 *49:13 io_oeb[19] 11.925 
*END

*D_NET *50 0.411765
*CONN
*P io_oeb[1] O
*I *419:io_oeb[1] O *D OQPSK_PS_RCOSINE2
*CAP
1 io_oeb[1] 0.0661142
2 *419:io_oeb[1] 0.000591639
3 *50:11 0.0661142
4 *50:9 0.00644315
5 *50:7 0.00703479
6 *50:9 *61:9 0.117295
7 *50:9 *70:9 0.00469484
8 *39:9 *50:9 0.142125
9 *43:9 *50:9 0.00135238
*RES
1 *419:io_oeb[1] *50:7 9.045 
2 *50:7 *50:9 379.17 
3 *50:9 *50:11 4.5 
4 *50:11 io_oeb[1] 531.045 
*END

*D_NET *51 0.145694
*CONN
*P io_oeb[20] O
*I *419:io_oeb[20] O *D OQPSK_PS_RCOSINE2
*CAP
1 io_oeb[20] 0.0610473
2 *419:io_oeb[20] 0.0117996
3 *51:7 0.0610473
4 *51:5 0.0117996
*RES
1 *419:io_oeb[20] *51:5 94.005 
2 *51:5 *51:7 4.5 
3 *51:7 io_oeb[20] 469.305 
*END

*D_NET *52 0.173759
*CONN
*P io_oeb[21] O
*I *419:io_oeb[21] O *D OQPSK_PS_RCOSINE2
*CAP
1 io_oeb[21] 0.061891
2 *419:io_oeb[21] 0.0249102
3 *52:7 0.061891
4 *52:5 0.0249102
5 *419:EN *52:5 0.000156578
*RES
1 *419:io_oeb[21] *52:5 200.385 
2 *52:5 *52:7 4.5 
3 *52:7 io_oeb[21] 475.785 
*END

*D_NET *53 0.466571
*CONN
*P io_oeb[22] O
*I *419:io_oeb[22] O *D OQPSK_PS_RCOSINE2
*CAP
1 io_oeb[22] 0.00100641
2 *419:io_oeb[22] 9.57219e-05
3 *53:13 0.0181851
4 *53:11 0.0171787
5 *53:9 0.0335794
6 *53:7 0.0336752
7 *53:9 *54:9 0.193269
8 *53:9 *72:13 0
9 *53:9 *96:6 0.0192986
10 *53:9 *100:8 0.000913159
11 *53:9 *101:6 0.00285816
12 *53:13 *89:17 0.0101011
13 *53:13 *92:13 0.0569757
14 *45:13 *53:13 0.0391394
15 *47:13 *53:13 0.0402326
16 *49:9 *53:9 6.24903e-05
*RES
1 *419:io_oeb[22] *53:7 5.265 
2 *53:7 *53:9 503.01 
3 *53:9 *53:11 4.5 
4 *53:11 *53:13 402.21 
5 *53:13 io_oeb[22] 12.285 
*END

*D_NET *54 0.653108
*CONN
*P io_oeb[23] O
*I *419:io_oeb[23] O *D OQPSK_PS_RCOSINE2
*CAP
1 io_oeb[23] 0.00107539
2 *419:io_oeb[23] 0.000118106
3 *54:13 0.0354855
4 *54:11 0.0344101
5 *54:9 0.00104254
6 *54:7 0.00116065
7 *54:9 *72:13 0.00042573
8 *54:9 *96:6 0.00644759
9 *54:9 *100:8 0.00175497
10 *54:9 *101:6 0.000409019
11 *54:13 *92:13 0.190039
12 *49:9 *54:9 0.187471
13 *53:9 *54:9 0.193269
*RES
1 *419:io_oeb[23] *54:7 5.265 
2 *54:7 *54:9 491.67 
3 *54:9 *54:11 4.5 
4 *54:11 *54:13 508.77 
5 *54:13 io_oeb[23] 12.825 
*END

*D_NET *55 0.355296
*CONN
*P io_oeb[24] O
*I *419:io_oeb[24] O *D OQPSK_PS_RCOSINE2
*CAP
1 io_oeb[24] 0.0660224
2 *419:io_oeb[24] 0.000254729
3 *55:11 0.0660224
4 *55:9 0.027677
5 *55:7 0.0279317
6 *55:7 *114:7 7.18464e-05
7 *55:9 *60:9 0.00129959
8 *55:9 *93:9 0.156093
9 *55:9 *94:9 0.000199224
10 *55:9 *95:9 0.00106467
11 *55:9 *102:9 0.00866006
*RES
1 *419:io_oeb[24] *55:7 6.705 
2 *55:7 *55:9 431.91 
3 *55:9 *55:11 4.5 
4 *55:11 io_oeb[24] 528.705 
*END

*D_NET *56 0.371344
*CONN
*P io_oeb[25] O
*I *419:io_oeb[25] O *D OQPSK_PS_RCOSINE2
*CAP
1 io_oeb[25] 0.000838287
2 *419:io_oeb[25] 0.000784533
3 *56:13 0.0342764
4 *56:11 0.0334381
5 *56:9 0.015323
6 *56:7 0.0161076
7 *56:7 *64:7 0.000134992
8 *56:9 *59:9 0.17598
9 *56:9 *68:9 0.0400811
10 *56:9 *72:9 0.00224084
11 *56:9 *91:9 0.000388617
12 *56:13 *58:9 0.00402146
13 *56:13 *59:13 0.0164595
14 *56:13 *98:17 0.00315617
15 *46:9 *56:9 0.0281136
*RES
1 *419:io_oeb[25] *56:7 10.665 
2 *56:7 *56:9 510.93 
3 *56:9 *56:11 4.5 
4 *56:11 *56:13 297.09 
5 *56:13 io_oeb[25] 11.385 
*END

*D_NET *57 0.232303
*CONN
*P io_oeb[26] O
*I *419:io_oeb[26] O *D OQPSK_PS_RCOSINE2
*CAP
1 io_oeb[26] 0.00116726
2 *419:io_oeb[26] 0.000592532
3 *57:13 0.0543436
4 *57:11 0.0531763
5 *57:9 0.0334345
6 *57:7 0.034027
7 *57:9 *62:9 0.0555623
8 *57:13 *59:13 0
*RES
1 *419:io_oeb[26] *57:7 9.045 
2 *57:7 *57:9 436.59 
3 *57:9 *57:11 4.5 
4 *57:11 *57:13 335.97 
5 *57:13 io_oeb[26] 13.365 
*END

*D_NET *58 0.22781
*CONN
*P io_oeb[27] O
*I *419:io_oeb[27] O *D OQPSK_PS_RCOSINE2
*CAP
1 io_oeb[27] 0.000773366
2 *419:io_oeb[27] 0.0530402
3 *58:9 0.0175456
4 *58:7 0.0167723
5 *58:5 0.0530402
6 *58:9 io_out[30] 0.000483372
7 *58:9 *62:13 0.000847246
8 *58:9 *66:9 0.00394074
9 *58:9 *68:13 0.00214971
10 *58:9 *69:13 0.00363992
11 *58:9 *97:17 0.0494689
12 *58:9 *98:17 0.022087
13 *56:13 *58:9 0.00402146
*RES
1 *419:io_oeb[27] *58:5 423.945 
2 *58:5 *58:7 4.5 
3 *58:7 *58:9 229.95 
4 *58:9 io_oeb[27] 10.845 
*END

*D_NET *59 0.3458
*CONN
*P io_oeb[28] O
*I *419:io_oeb[28] O *D OQPSK_PS_RCOSINE2
*CAP
1 io_oeb[28] 0.000932439
2 *419:io_oeb[28] 0.000838696
3 *59:13 0.00786084
4 *59:11 0.0069284
5 *59:9 0.0103725
6 *59:7 0.0112112
7 *59:7 *72:7 0.00013643
8 *59:9 *91:9 0.11508
9 *56:9 *59:9 0.17598
10 *56:13 *59:13 0.0164595
11 *57:13 *59:13 0
*RES
1 *419:io_oeb[28] *59:7 10.845 
2 *59:7 *59:9 438.21 
3 *59:9 *59:11 4.5 
4 *59:11 *59:13 92.79 
5 *59:13 io_oeb[28] 11.745 
*END

*D_NET *60 0.188304
*CONN
*P io_oeb[29] O
*I *419:io_oeb[29] O *D OQPSK_PS_RCOSINE2
*CAP
1 io_oeb[29] 0.066323
2 *419:io_oeb[29] 0.000356385
3 *60:11 0.066323
4 *60:9 0.00650105
5 *60:7 0.00685744
6 *60:7 *82:7 8.87761e-05
7 *60:9 *95:9 0.0225825
8 *60:9 *97:11 0.0123678
9 *60:9 *102:9 0.00560398
10 *55:9 *60:9 0.00129959
*RES
1 *419:io_oeb[29] *60:7 7.425 
2 *60:7 *60:9 114.39 
3 *60:9 *60:11 4.5 
4 *60:11 io_oeb[29] 529.425 
*END

*D_NET *61 0.351646
*CONN
*P io_oeb[2] O
*I *419:io_oeb[2] O *D OQPSK_PS_RCOSINE2
*CAP
1 io_oeb[2] 0.0661696
2 *419:io_oeb[2] 0.000622237
3 *61:11 0.0661696
4 *61:9 0.00461133
5 *61:7 0.00523357
6 *61:9 *70:9 0.0915449
7 *50:9 *61:9 0.117295
*RES
1 *419:io_oeb[2] *61:7 9.225 
2 *61:7 *61:9 290.61 
3 *61:9 *61:11 4.5 
4 *61:11 io_oeb[2] 531.225 
*END

*D_NET *62 0.200463
*CONN
*P io_oeb[30] O
*I *419:io_oeb[30] O *D OQPSK_PS_RCOSINE2
*CAP
1 io_oeb[30] 0.000867944
2 *419:io_oeb[30] 0.000725347
3 *62:13 0.00508945
4 *62:11 0.0042215
5 *62:9 0.0199819
6 *62:7 0.0207073
7 *62:9 *65:9 0.0548001
8 *62:9 *86:9 0.00556319
9 *62:9 *87:11 0.00563896
10 *62:13 io_out[31] 0.000407104
11 *62:13 *66:9 0.00076782
12 *62:13 *68:13 0.0252832
13 *57:9 *62:9 0.0555623
14 *58:9 *62:13 0.000847246
*RES
1 *419:io_oeb[30] *62:7 9.585 
2 *62:7 *62:9 507.87 
3 *62:9 *62:11 4.5 
4 *62:11 *62:13 64.35 
5 *62:13 io_oeb[30] 11.205 
*END

*D_NET *63 0.182464
*CONN
*P io_oeb[31] O
*I *419:io_oeb[31] O *D OQPSK_PS_RCOSINE2
*CAP
1 io_oeb[31] 0.0819861
2 *419:io_oeb[31] 0.00323618
3 *63:8 0.0852222
4 *63:8 *101:6 0.0120194
*RES
1 *419:io_oeb[31] *63:8 49.23 
2 *63:8 io_oeb[31] 526.185 
*END

*D_NET *64 0.229348
*CONN
*P io_oeb[32] O
*I *419:io_oeb[32] O *D OQPSK_PS_RCOSINE2
*CAP
1 io_oeb[32] 0.00188703
2 *419:io_oeb[32] 0.000591677
3 *64:13 0.0250831
4 *64:11 0.0231961
5 *64:9 0.0337426
6 *64:7 0.0343343
7 *64:9 *68:9 0.000667915
8 *64:9 *69:9 0.0798887
9 *64:9 *72:9 0.0298217
10 *56:7 *64:7 0.000134992
*RES
1 *419:io_oeb[32] *64:7 9.405 
2 *64:7 *64:9 507.33 
3 *64:9 *64:11 4.5 
4 *64:11 *64:13 177.75 
5 *64:13 io_oeb[32] 16.065 
*END

*D_NET *65 0.238824
*CONN
*P io_oeb[33] O
*I *419:io_oeb[33] O *D OQPSK_PS_RCOSINE2
*CAP
1 io_oeb[33] 0.000799722
2 *419:io_oeb[33] 0.00076238
3 *65:13 0.00088215
4 *65:11 8.24286e-05
5 *65:9 0.0332015
6 *65:7 0.0339639
7 *65:13 *66:9 0.0048765
8 *65:13 *68:13 0.0547234
9 *65:13 *69:13 0.0547314
10 *62:9 *65:9 0.0548001
*RES
1 *419:io_oeb[33] *65:7 10.125 
2 *65:7 *65:9 431.55 
3 *65:9 *65:11 4.5 
4 *65:11 *65:13 139.23 
5 *65:13 io_oeb[33] 10.845 
*END

*D_NET *66 0.213359
*CONN
*P io_oeb[34] O
*I *419:io_oeb[34] O *D OQPSK_PS_RCOSINE2
*CAP
1 io_oeb[34] 0.000955549
2 *419:io_oeb[34] 0.0530518
3 *66:9 0.031012
4 *66:7 0.0300565
5 *66:5 0.0530518
6 *66:9 io_out[31] 0.00497042
7 *66:9 *68:13 0.00776198
8 *66:9 *69:13 0.0229137
9 *58:9 *66:9 0.00394074
10 *62:13 *66:9 0.00076782
11 *65:13 *66:9 0.0048765
*RES
1 *419:io_oeb[34] *66:5 424.125 
2 *66:5 *66:7 4.5 
3 *66:7 *66:9 255.87 
4 *66:9 io_oeb[34] 10.665 
*END

*D_NET *67 0.208023
*CONN
*P io_oeb[35] O
*I *419:io_oeb[35] O *D OQPSK_PS_RCOSINE2
*CAP
1 io_oeb[35] 0.0662429
2 *419:io_oeb[35] 0.000651414
3 *67:11 0.0662429
4 *67:9 0.0370411
5 *67:7 0.0376925
6 *67:7 *81:7 0.000152272
7 *67:9 *71:9 0
8 *67:9 *82:9 0
*RES
1 *419:io_oeb[35] *67:7 9.405 
2 *67:7 *67:9 300.51 
3 *67:9 *67:11 4.5 
4 *67:11 io_oeb[35] 531.405 
*END

*D_NET *68 0.444348
*CONN
*P io_oeb[36] O
*I *419:io_oeb[36] O *D OQPSK_PS_RCOSINE2
*CAP
1 io_oeb[36] 0.000812283
2 *419:io_oeb[36] 0.000688651
3 *68:13 0.0289522
4 *68:11 0.0281399
5 *68:9 0.0119513
6 *68:7 0.0126399
7 *68:9 *69:9 0.173653
8 *68:9 *72:9 0.000802231
9 *68:13 io_out[31] 0.000429629
10 *68:13 *69:13 0.0552006
11 *68:13 *98:17 0.000267186
12 *46:7 *68:7 0.000143181
13 *56:9 *68:9 0.0400811
14 *58:9 *68:13 0.00214971
15 *62:13 *68:13 0.0252832
16 *64:9 *68:9 0.000667915
17 *65:13 *68:13 0.0547234
18 *66:9 *68:13 0.00776198
*RES
1 *419:io_oeb[36] *68:7 9.945 
2 *68:7 *68:9 442.17 
3 *68:9 *68:11 4.5 
4 *68:11 *68:13 450.45 
5 *68:13 io_oeb[36] 11.025 
*END

*D_NET *69 0.481242
*CONN
*P io_oeb[37] O
*I *419:io_oeb[37] O *D OQPSK_PS_RCOSINE2
*CAP
1 io_oeb[37] 0.000751969
2 *419:io_oeb[37] 0.000650433
3 *69:13 0.0418347
4 *69:11 0.0410827
5 *69:9 0.00278384
6 *69:7 0.00343428
7 *69:13 *97:17 0.000534372
8 *42:5 *69:7 0.000141743
9 *58:9 *69:13 0.00363992
10 *64:9 *69:9 0.0798887
11 *65:13 *69:13 0.0547314
12 *66:9 *69:13 0.0229137
13 *68:9 *69:9 0.173653
14 *68:13 *69:13 0.0552006
*RES
1 *419:io_oeb[37] *69:7 9.765 
2 *69:7 *69:9 432.81 
3 *69:9 *69:11 4.5 
4 *69:11 *69:13 518.31 
5 *69:13 io_oeb[37] 10.665 
*END

*D_NET *70 0.305316
*CONN
*P io_oeb[3] O
*I *419:io_oeb[3] O *D OQPSK_PS_RCOSINE2
*CAP
1 io_oeb[3] 0.0662081
2 *419:io_oeb[3] 0.000780671
3 *70:11 0.0662081
4 *70:9 0.00709858
5 *70:7 0.00787925
6 *34:9 *70:9 0.0606786
7 *43:9 *70:9 0.000223185
8 *50:9 *70:9 0.00469484
9 *61:9 *70:9 0.0915449
*RES
1 *419:io_oeb[3] *70:7 9.405 
2 *70:7 *70:9 253.89 
3 *70:9 *70:11 4.5 
4 *70:11 io_oeb[3] 531.405 
*END

*D_NET *71 0.14261
*CONN
*P io_oeb[4] O
*I *419:io_oeb[4] O *D OQPSK_PS_RCOSINE2
*CAP
1 io_oeb[4] 0.0528345
2 *419:io_oeb[4] 0.000680026
3 *71:11 0.0528345
4 *71:9 0.016931
5 *71:7 0.017611
6 *71:7 *81:7 0.000192795
7 *71:9 *82:9 0.00133311
8 *41:5 *71:7 0.000192795
9 *67:9 *71:9 0
*RES
1 *419:io_oeb[4] *71:7 10.845 
2 *71:7 *71:9 139.41 
3 *71:9 *71:11 4.5 
4 *71:11 io_oeb[4] 423.945 
*END

*D_NET *72 0.193383
*CONN
*P io_oeb[5] O
*I *419:io_oeb[5] O *D OQPSK_PS_RCOSINE2
*CAP
1 io_oeb[5] 0.0535374
2 *419:io_oeb[5] 0.000629896
3 *72:15 0.0535374
4 *72:13 0.0190271
5 *72:11 0.0190271
6 *72:9 0.00471398
7 *72:7 0.00534388
8 *72:13 *92:9 0.00121822
9 *46:9 *72:9 0
10 *49:9 *72:13 0.00292097
11 *53:9 *72:13 0
12 *54:9 *72:13 0.00042573
13 *56:9 *72:9 0.00224084
14 *59:7 *72:7 0.00013643
15 *64:9 *72:9 0.0298217
16 *68:9 *72:9 0.000802231
*RES
1 *419:io_oeb[5] *72:7 9.585 
2 *72:7 *72:9 83.07 
3 *72:9 *72:11 4.5 
4 *72:11 *72:13 159.57 
5 *72:13 *72:15 4.5 
6 *72:15 io_oeb[5] 429.525 
*END

*D_NET *73 0.177356
*CONN
*P io_oeb[6] O
*I *419:io_oeb[6] O *D OQPSK_PS_RCOSINE2
*CAP
1 io_oeb[6] 0.00155926
2 *419:io_oeb[6] 0.000219232
3 *73:13 0.0601597
4 *73:11 0.0586004
5 *73:9 0.00768562
6 *73:7 0.00790485
7 *73:13 *101:10 0.0394455
8 *45:9 *73:9 0.00178123
*RES
1 *419:io_oeb[6] *73:7 6.165 
2 *73:7 *73:9 57.69 
3 *73:9 *73:11 4.5 
4 *73:11 *73:13 519.93 
5 *73:13 io_oeb[6] 21.015 
*END

*D_NET *74 0.109508
*CONN
*P io_oeb[7] O
*I *419:io_oeb[7] O *D OQPSK_PS_RCOSINE2
*CAP
1 io_oeb[7] 0.0525437
2 *419:io_oeb[7] 0.00221005
3 *74:11 0.0547538
4 *74:11 *80:9 0
*RES